
 OpenBabel03232618253D

 14 13  0  0  1  0  0  0  0  0999 V2000
    2.9889    0.9131    0.9753 N   0  0  0  0  0  0  0  0  0  0  0  0
    2.5473   -0.0565   -0.0301 C   0  0  2  0  0  0  0  0  0  0  0  0
    1.0362   -0.0834   -0.0653 C   0  0  0  0  0  0  0  0  0  0  0  0
    0.4081   -0.4164    0.9281 O   0  0  0  0  0  0  0  0  0  0  0  0
    0.3625    0.2628   -1.1834 O   0  0  0  0  0  0  0  0  0  0  0  0
    3.0957   -1.4670    0.2589 C   0  0  0  0  0  0  0  0  0  0  0  0
    5.0489   -1.5241    0.2819 Se  0  0  0  0  0  0  0  0  0  0  0  0
    4.0240    1.0474    0.9210 H   0  0  0  0  0  0  0  0  0  0  0  0
    2.7374    0.5842    1.9363 H   0  0  0  0  0  0  0  0  0  0  0  0
    2.9223    0.2703   -1.0249 H   0  0  0  0  0  0  0  0  0  0  0  0
    0.8164    0.5422   -1.9904 H   0  0  0  0  0  0  0  0  0  0  0  0
    2.7379   -2.1898   -0.5053 H   0  0  0  0  0  0  0  0  0  0  0  0
    2.7345   -1.8189    1.2489 H   0  0  0  0  0  0  0  0  0  0  0  0
    5.1310   -1.0047   -1.1608 H   0  0  0  0  0  0  0  0  0  0  0  0
  1  8  1  0  0  0  0
  1  9  1  0  0  0  0
  2  6  1  0  0  0  0
  2  3  1  0  0  0  0
  2  1  1  0  0  0  0
  2 10  1  6  0  0  0
  3  4  2  0  0  0  0
  3  5  1  0  0  0  0
  5 11  1  0  0  0  0
  6  7  1  0  0  0  0
  6 12  1  0  0  0  0
  6 13  1  0  0  0  0
  7 14  1  0  0  0  0
M  END
$$$$
